/*--------------------------------*- C++ -*----------------------------------*\
| =========                 |                                                 |
| \\      /  F ield         | OpenFOAM: The Open Source CFD Toolbox           |
|  \\    /   O peration     | Version:  v2006                                 |
|   \\  /    A nd           | Website:  www.openfoam.com                      |
|    \\/     M anipulation  |                                                 |
\*---------------------------------------------------------------------------*/
FoamFile
{
    version     2.0;
    format      ascii;
    class       polyBoundaryMesh;
    location    "constant/polyMesh";
    object      boundary;
}
// * * * * * * * * * * * * * * * * * * * * * * * * * * * * * * * * * * * * * //

3
(
    overset2
    {
        type            overset;
        nFaces          75;
        startFace       1425;
    }
    cylinder2
    {
        type            wall;
        inGroups        1(wall);
        nFaces          75;
        startFace       1500;
    }
    frontAndBack
    {
        type            empty;
        inGroups        1(empty);
        nFaces          1500;
        startFace       1575;
    }
)

// ************************************************************************* //
